# generated using pymatgen
data_Nb2GaCo3
_symmetry_space_group_name_H-M   'P 1'
_cell_length_a   4.84209191
_cell_length_b   4.84209191
_cell_length_c   8.15438379
_cell_angle_alpha   90.00000000
_cell_angle_beta   90.00000000
_cell_angle_gamma   120.00000199
_symmetry_Int_Tables_number   1
_chemical_formula_structural   Nb2GaCo3
_chemical_formula_sum   'Nb4 Ga2 Co6'
_cell_volume   165.57235561
_cell_formula_units_Z   2
loop_
 _symmetry_equiv_pos_site_id
 _symmetry_equiv_pos_as_xyz
  1  'x, y, z'
loop_
 _atom_site_type_symbol
 _atom_site_label
 _atom_site_symmetry_multiplicity
 _atom_site_fract_x
 _atom_site_fract_y
 _atom_site_fract_z
 _atom_site_occupancy
  Nb  Nb0  1  0.33333300  0.66666700  0.93063261  1
  Nb  Nb1  1  0.66666700  0.33333300  0.06936739  1
  Nb  Nb2  1  0.66666700  0.33333300  0.43063261  1
  Nb  Nb3  1  0.33333300  0.66666700  0.56936739  1
  Ga  Ga4  1  0.00000000  0.00000000  -0.00000000  1
  Ga  Ga5  1  0.00000000  0.00000000  0.50000000  1
  Co  Co6  1  0.82745123  0.17254877  0.75000000  1
  Co  Co7  1  0.82745123  0.65490246  0.75000000  1
  Co  Co8  1  0.34509754  0.17254877  0.75000000  1
  Co  Co9  1  0.17254877  0.82745123  0.25000000  1
  Co  Co10  1  0.17254877  0.34509754  0.25000000  1
  Co  Co11  1  0.65490246  0.82745123  0.25000000  1
